reduced_networks/ieee123/78pct/dss/Shunts.dss
! Kron-equivalent grounded shunts
new Reactor.sh_3 phases=3 bus1=149.1.2.3 bus2=149.0.0.0 rmatrix=[-809.1603249774128 | -2279.95293007447 -6424.172321474543 | -596.6094659018543 -1681.053133604677 -439.8916306396167] xmatrix=[-5387678.104381707 | -1864218.853786813 -5252767.723268605 | -1099212.482735463 -1374524.40554614 -5330404.422613046]
new Reactor.sh_4 phases=3 bus1=1.1.2.3 bus2=1.0.0.0 rmatrix=[0.006422815046450638 | 0.007684273177742055 -0.007959180473659811 | 0.006584005986577737 0.006615876021219721 0.03041999869631523] xmatrix=[-2890238.078665983 | -663675.5195711752 -1999421.962437902 | -149784.5328616784 -149832.3409469052 -824654.8661578533]
new Reactor.sh_5 phases=3 bus1=7.1.2.3 bus2=7.0.0.0 rmatrix=[0.08202644123835975 | 0.04293154604905675 -0.01868219839491821 | 0.03452879213718719 0.04152077999900763 0.1327635950362676] xmatrix=[-4310142.968079567 | -1491377.233677503 -4202220.503747123 | -879370.5046637448 -1099621.170640434 -4264324.068801195]
new Reactor.sh_6 phases=3 bus1=8.1.2.3 bus2=8.0.0.0 rmatrix=[-0.05494856650214961 | 0.001763232159976555 0.006282405284149473 | -0.0007628281446116925 0.02321744436483194 0.1191624974366808] xmatrix=[-2925815.957248629 | -592074.9765960451 -2275623.621790843 | -506248.9046100614 -567591.9461635151 -4101262.139865089]
new Reactor.sh_7 phases=1 bus1=9.1 bus2=9.0 rmatrix=[0.1915902135679947] xmatrix=[-10385359.94939817]
new Reactor.sh_8 phases=3 bus1=13.1.2.3 bus2=13.0.0.0 rmatrix=[-722.5966522112268 | -191.3649856413282 -51.93838057394595 | -112.5053783217812 -38.29571110844303 -74.90418541656607] xmatrix=[-1754306.873888527 | -457869.4239974566 -1825458.356447356 | -227753.6089628924 -163885.3207684853 -734628.2118721933]
new Reactor.sh_9 phases=1 bus1=9r.1 bus2=9r.0 rmatrix=[0.06872330832002073] xmatrix=[-1263080.560340031]
new Reactor.sh_10 phases=3 bus1=18.1.2.3 bus2=18.0.0.0 rmatrix=[-8.328163574265146 | -19.11781594962557 -101.1336825587751 | -29.35336888164432 -30.98477629323188 -126.5900783527311] xmatrix=[-764525.0715529589 | -144900.6590153468 -922055.7724672509 | -224779.3117669263 -136095.1216413182 -1033851.761115088]
new Reactor.sh_11 phases=3 bus1=25.1.2.3 bus2=25.0.0.0 rmatrix=[0.02053666925651946 | 0.006015658491083096 0.02314293926870194 | 0.003607137269300778 0.0192605678634436 0.01747671327222806] xmatrix=[-697121.106684475 | -159368.8335562962 -646757.9874189289 | -203879.650984082 -109187.0709577253 -596231.2504509344]
new Reactor.sh_12 phases=2 bus1=25r.1.3 bus2=25r.0.0 rmatrix=[0.03765000392772525 | 0.01045355860531643 0.02091310491913714] xmatrix=[-981579.8347315664 | -115480.3829160523 -955769.4493841821]
new Reactor.sh_13 phases=3 bus1=40.1.2.3 bus2=40.0.0.0 rmatrix=[-194.4562718593173 | 837.6198789741455 -258.8931646865215 | -267.3563721204735 -1436.312285330965 -254.6653834517101] xmatrix=[-290913.9984662796 | -12674.15924745623 -273586.7914513753 | -35490.97821515998 -68439.83027707554 -375911.643316156]
new Reactor.sh_14 phases=3 bus1=52.1.2.3 bus2=52.0.0.0 rmatrix=[4228.097572268565 | 16550.81498980612 -3067.025511677488 | -9408.818464623335 -13676.82006897516 7968.345256849472] xmatrix=[-1311113.452358394 | -468268.8035377971 -1273153.906034445 | -258773.0646504067 -320248.4801158214 -1301641.974390676]
new Reactor.sh_15 phases=3 bus1=57.1.2.3 bus2=57.0.0.0 rmatrix=[3373.067435035156 | -8430.331171983285 3917.773217259695 | 4181.950143176109 4987.605958918946 -4988.352125305928] xmatrix=[-1071539.092618501 | -173076.1912550784 -745542.6547167643 | -246713.2751800726 -249094.3963071377 -1035459.031691741]
new Reactor.sh_16 phases=3 bus1=60.1.2.3 bus2=60.0.0.0 rmatrix=[-11.05649667030074 | -0.381364737402737 -3.688104238633851 | -0.2834430641835047 -0.1091609723686831 -0.009922079975132725] xmatrix=[-177914.3305216483 | -4717.972228195683 -177828.347025304 | -4661.898090663922 -5369.22657777695 -177602.6976991282]
new Reactor.sh_17 phases=3 bus1=61.1.2.3 bus2=61.0.0.0 rmatrix=[-1912.949755699964 | -1221.412262254898 -2001.336637060913 | -570.7546779267221 -522.4412850441494 -190.7343465072613] xmatrix=[-3820199.403533487 | -1355796.682864476 -3918310.94560686 | -999655.2809649153 -799427.4710520077 -3876658.0666833]
new Reactor.sh_18 phases=3 bus1=64.1.2.3 bus2=64.0.0.0 rmatrix=[0.03269275216345721 | 0.01120848383102249 0.03286637966130002 | 0.01053250270773519 0.01114390290672418 0.03265463882689801] xmatrix=[-69050.52814137375 | 0.005944630621761903 -69050.52886446792 | 0.004605899635749392 0.005975597591501014 -69050.52810114305]
new Reactor.sh_19 phases=3 bus1=67.1.2.3 bus2=67.0.0.0 rmatrix=[1.654048693048043 | 5.332491944253027 -0.7327358415535805 | -9.605171733379496 9.874314514441117 -0.1504498929031193] xmatrix=[352.5576616746436 | -6.475136946099654 358.8710182677494 | 19.48386573872818 -17.76036666612166 357.0172247850726]
new Reactor.sh_20 phases=3 bus1=97.1.2.3 bus2=97.0.0.0 rmatrix=[-5.531990497426498 | -12.25053501944551 -39.88267452601463 | -18.28503752351224 -32.85604623385581 -65.01609937309317] xmatrix=[-520039.4032342967 | -107240.2667354491 -525627.1101734338 | -134100.094130837 -181875.2249989447 -512465.794207479]
new Reactor.sh_21 phases=3 bus1=80.1.2.3 bus2=80.0.0.0 rmatrix=[7.192532946960004 | -2.372012690423242 10.45463124192771 | 11.90646156737344 -7.040396975003347 9.869776286030607] xmatrix=[-328.4241069898625 | 12.51920504581476 -335.6919588336712 | -7.666927820567922 24.02623681567891 -332.5543696081331]
new Reactor.sh_22 phases=3 bus1=197.1.2.3 bus2=197.0.0.0 rmatrix=[133115.6135583268 | 42769.09908570376 11939.29891768758 | 43482.33178446742 12203.73174708234 12471.30698905954] xmatrix=[-891685.1807885024 | -181592.639543033 -429877.7037837036 | -188424.0296384259 -117830.1413105346 -371636.7603717803]
new Reactor.sh_23 phases=1 bus1=109.1 bus2=109.0 rmatrix=[-19939.10539167439] xmatrix=[-389291.9071300982]
new Reactor.sh_24 phases=3 bus1=135.1.2.3 bus2=135.0.0.0 rmatrix=[7512.101933100244 | -20715.84433272936 10432.99702066036 | 9267.400951828273 58285.19307298686 7918.84975323244] xmatrix=[-1505103.004904199 | -6462.528694139082 -1312662.258977186 | -210582.7659400852 -525145.7542365302 -3164929.495564688]
new Reactor.sh_25 phases=3 bus1=152.1.2.3 bus2=152.0.0.0 rmatrix=[-809.1603249774128 | -2279.95293007447 -6424.172321474543 | -596.6094659018543 -1681.053133604677 -439.8916306396167] xmatrix=[-5387678.104381707 | -1864218.853786813 -5252767.723268605 | -1099212.482735463 -1374524.40554614 -5330404.422613046]
new Reactor.sh_26 phases=3 bus1=160r.1.2.3 bus2=160r.0.0.0 rmatrix=[0.07400854916889514 | 0.01288845290068829 -0.02577449166279657 | 0.04427019929359367 0.0130065190379223 0.06988853930540771] xmatrix=[-6157349.601978665 | -1256246.900640987 -6091899.052574358 | -2130547.560006505 -1570895.246520848 -6003196.90859571]
